// -*- C++ -*-
// File generated by PyFoam - sorry for the ugliness

FoamFile
{
 version 2.0;
 format ascii;
 class dictionary;
 object controlDict;
}

application laplacianFoam;

startFrom latestTime;

startTime 0;

stopAt endTime;

endTime 19200;

deltaT 19200;

writeControl runTime;

writeInterval 19200;

purgeWrite 0;

writeFormat ascii;

writePrecision 6;

writeCompression no;
timeFormat general;

timePrecision 6;

runTimeModifiable yes;
